
 OpenBabel09252514083D

 11 10  0  0  0  0  0  0  0  0999 V2000
   -1.6607    0.2106   -0.0070 C   0  0  0  0  0  0  0  0  0  0  0  0
   -0.8873    1.5299    0.0088 C   0  0  0  0  0  0  0  0  0  0  0  0
   -1.4408   -0.3699   -0.9098 H   0  0  0  0  0  0  0  0  0  0  0  0
   -2.7420    0.3823    0.0207 H   0  0  0  0  0  0  0  0  0  0  0  0
   -1.4025   -0.4136    0.8555 H   0  0  0  0  0  0  0  0  0  0  0  0
    0.6220    1.2860   -0.0299 C   0  0  0  0  0  0  0  0  0  0  0  0
    0.9148    0.7398   -0.9334 H   0  0  0  0  0  0  0  0  0  0  0  0
    0.9531    0.6962    0.8320 H   0  0  0  0  0  0  0  0  0  0  0  0
    1.1784    2.2293   -0.0187 H   0  0  0  0  0  0  0  0  0  0  0  0
   -1.1522    2.1114    0.9125 H   0  0  0  0  0  0  0  0  0  0  0  0
   -1.1905    2.1551   -0.8527 H   0  0  0  0  0  0  0  0  0  0  0  0
  1  2  1  0  0  0  0
  1  4  1  0  0  0  0
  1  5  1  0  0  0  0
  2 10  1  0  0  0  0
  3  1  1  0  0  0  0
  6  9  1  0  0  0  0
  6  2  1  0  0  0  0
  6  8  1  0  0  0  0
  7  6  1  0  0  0  0
 11  2  1  0  0  0  0
M  END
