
 OpenBabel09252511443D

 11 10  0  0  0  0  0  0  0  0999 V2000
   -1.6571    0.2139   -0.0070 C   0  0  0  0  0  0  0  0  0  0  0  0
   -0.8833    1.5213    0.0085 C   0  0  0  0  0  0  0  0  0  0  0  0
   -1.4398   -0.3598   -0.9137 H   0  0  0  0  0  0  0  0  0  0  0  0
   -2.7335    0.4100    0.0212 H   0  0  0  0  0  0  0  0  0  0  0  0
   -1.4013   -0.4037    0.8598 H   0  0  0  0  0  0  0  0  0  0  0  0
    0.6171    1.2854   -0.0298 C   0  0  0  0  0  0  0  0  0  0  0  0
    0.9063    0.7454   -0.9372 H   0  0  0  0  0  0  0  0  0  0  0  0
    0.9448    0.7016    0.8364 H   0  0  0  0  0  0  0  0  0  0  0  0
    1.1517    2.2403   -0.0178 H   0  0  0  0  0  0  0  0  0  0  0  0
   -1.1406    2.0868    0.9110 H   0  0  0  0  0  0  0  0  0  0  0  0
   -1.1789    2.1304   -0.8529 H   0  0  0  0  0  0  0  0  0  0  0  0
  1  2  1  0  0  0  0
  1  3  1  0  0  0  0
  1  4  1  0  0  0  0
  1  5  1  0  0  0  0
  2 10  1  0  0  0  0
  2 11  1  0  0  0  0
  6  2  1  0  0  0  0
  6  7  1  0  0  0  0
  6  8  1  0  0  0  0
  6  9  1  0  0  0  0
M  END
