
 OpenBabel09252514123D

  8  7  0  0  0  0  0  0  0  0999 V2000
   -1.6408    0.1776    0.0023 C   0  0  0  0  0  0  0  0  0  0  0  0
   -0.4171   -0.3510   -0.0650 C   0  0  0  0  0  0  0  0  0  0  0  0
   -2.5511   -0.4013   -0.0683 H   0  0  0  0  0  0  0  0  0  0  0  0
   -1.8133    1.2424    0.1348 H   0  0  0  0  0  0  0  0  0  0  0  0
    0.7883    0.4970    0.0387 C   0  0  0  0  0  0  0  0  0  0  0  0
   -0.2427   -1.4158   -0.1975 H   0  0  0  0  0  0  0  0  0  0  0  0
    0.7241    1.6955    0.1848 O   0  0  0  0  0  0  0  0  0  0  0  0
    1.7659    0.0001   -0.0215 H   0  0  0  0  0  0  0  0  0  0  0  0
  1  4  1  0  0  0  0
  2  1  2  0  0  0  0
  2  5  1  0  0  0  0
  3  1  1  0  0  0  0
  5  7  2  0  0  0  0
  6  2  1  0  0  0  0
  8  5  1  0  0  0  0
M  END
