
 OpenBabel09252511433D

 28 29  0  0  1  0  0  0  0  0999 V2000
   10.1734  -24.7281    0.1665 C   0  0  0  0  0  0  0  0  0  0  0  0
   10.2129  -26.1029   -0.1035 C   0  0  0  0  0  0  0  0  0  0  0  0
    8.9611  -24.0359    0.0615 C   0  0  0  0  0  0  0  0  0  0  0  0
    9.0403  -26.7789   -0.4530 C   0  0  0  0  0  0  0  0  0  0  0  0
    7.7959  -24.7143   -0.3032 C   0  0  0  0  0  0  0  0  0  0  0  0
    7.8328  -26.0867   -0.5432 C   0  0  0  0  0  0  0  0  0  0  0  0
   11.5494  -23.9705    1.0301 S   0  0  0  0  0  0  0  0  0  0  0  0
   12.4437  -23.1085   -0.0073 N   0  0  0  0  0  0  0  0  0  0  0  0
   10.9583  -23.1089    2.0377 O   0  0  0  0  0  0  0  0  0  0  0  0
   12.3833  -25.0745    1.4767 O   0  0  0  0  0  0  0  0  0  0  0  0
   12.3684  -21.8191   -0.1491 C   0  0  0  0  0  0  0  0  0  0  0  0
   11.2103  -20.9338    0.2149 C   0  0  0  0  0  0  0  0  0  0  0  0
   13.4910  -21.1787   -0.6545 N   0  0  0  0  0  0  0  0  0  0  0  0
   11.4116  -19.6072    0.1905 C   0  0  0  0  0  0  0  0  0  0  0  0
   13.7387  -19.8320   -0.4779 C   0  0  1  0  0  0  0  0  0  0  0  0
   12.7179  -19.0437   -0.0816 C   0  0  0  0  0  0  0  0  0  0  0  0
   15.0057  -19.3248   -0.6381 N   0  0  0  0  0  0  0  0  0  0  0  0
   11.1321  -26.6711    0.0258 H   0  0  0  0  0  0  0  0  0  0  0  0
    8.8854  -22.9889    0.3305 H   0  0  0  0  0  0  0  0  0  0  0  0
    9.0591  -27.8554   -0.6087 H   0  0  0  0  0  0  0  0  0  0  0  0
    6.8487  -24.1814   -0.3485 H   0  0  0  0  0  0  0  0  0  0  0  0
    6.9140  -26.6224   -0.7711 H   0  0  0  0  0  0  0  0  0  0  0  0
   10.2452  -21.3475    0.4461 H   0  0  0  0  0  0  0  0  0  0  0  0
   14.2991  -21.7544   -0.8407 H   0  0  0  0  0  0  0  0  0  0  0  0
   10.6022  -18.9215    0.4186 H   0  0  0  0  0  0  0  0  0  0  0  0
   12.8454  -17.9797    0.0863 H   0  0  0  0  0  0  0  0  0  0  0  0
   15.7166  -19.9736   -0.3123 H   0  0  0  0  0  0  0  0  0  0  0  0
   15.1250  -18.4172   -0.1926 H   0  0  0  0  0  0  0  0  0  0  0  0
  1  7  1  0  0  0  0
  2 18  1  0  0  0  0
  2  1  2  0  0  0  0
  3  1  1  0  0  0  0
  3 19  1  0  0  0  0
  4  2  1  0  0  0  0
  5  3  2  0  0  0  0
  6  4  2  0  0  0  0
  6  5  1  0  0  0  0
  7 10  2  0  0  0  0
  7  9  2  0  0  0  0
  8  7  1  0  0  0  0
 11  8  1  0  0  0  0
 11 12  2  0  0  0  0
 12 23  1  0  0  0  0
 13 15  1  0  0  0  0
 13 11  1  0  0  0  0
 14 12  1  0  0  0  0
 14 25  1  0  0  0  0
 15 17  1  1  0  0  0
 15 16  1  0  0  0  0
 16 26  1  0  0  0  0
 16 14  2  0  0  0  0
 17 27  1  0  0  0  0
 17 28  1  0  0  0  0
 20  4  1  0  0  0  0
 21  5  1  0  0  0  0
 22  6  1  0  0  0  0
 24 13  1  0  0  0  0
M  END
