
 OpenBabel09252514033D

 13 14  0  0  0  0  0  0  0  0999 V2000
   -1.1114    0.9078    0.0692 O   0  0  0  0  0  0  0  0  0  0  0  0
   -2.1887    0.0409    0.2753 C   0  0  0  0  0  0  0  0  0  0  0  0
    0.0249    0.1424   -0.2088 C   0  0  0  0  0  0  0  0  0  0  0  0
   -1.7571   -1.2258    0.1345 C   0  0  0  0  0  0  0  0  0  0  0  0
   -0.3136   -1.1596   -0.1812 C   0  0  0  0  0  0  0  0  0  0  0  0
   -1.7642   -2.7209    0.0821 C   0  0  0  0  0  0  0  0  0  0  0  0
   -0.1984   -2.6491   -0.2603 C   0  0  0  0  0  0  0  0  0  0  0  0
   -2.3735   -3.1592   -0.7125 H   0  0  0  0  0  0  0  0  0  0  0  0
   -1.9902   -3.2220    1.0269 H   0  0  0  0  0  0  0  0  0  0  0  0
    0.0602   -3.0476   -1.2448 H   0  0  0  0  0  0  0  0  0  0  0  0
    0.4435   -3.1104    0.4946 H   0  0  0  0  0  0  0  0  0  0  0  0
   -3.0933    0.5547    0.4932 H   0  0  0  0  0  0  0  0  0  0  0  0
    0.8895    0.7373   -0.3778 H   0  0  0  0  0  0  0  0  0  0  0  0
  1  2  1  0  0  0  0
  2 12  1  0  0  0  0
  3  5  2  0  0  0  0
  3  1  1  0  0  0  0
  4  2  2  0  0  0  0
  5  4  1  0  0  0  0
  6  4  1  0  0  0  0
  6  9  1  0  0  0  0
  7  5  1  0  0  0  0
  7  6  1  0  0  0  0
  7 11  1  0  0  0  0
  8  6  1  0  0  0  0
 10  7  1  0  0  0  0
 13  3  1  0  0  0  0
M  END
