
 OpenBabel09252511583D

 25 26  0  0  0  0  0  0  0  0999 V2000
    8.8378  -14.9687    0.1334 C   0  0  0  0  0  0  0  0  0  0  0  0
    8.6853  -16.3111    0.4391 C   0  0  0  0  0  0  0  0  0  0  0  0
    7.6100  -14.3116   -0.0700 C   0  0  0  0  0  0  0  0  0  0  0  0
    7.4447  -16.9880    0.3106 C   0  0  0  0  0  0  0  0  0  0  0  0
    6.3534  -14.9253   -0.1091 C   0  0  0  0  0  0  0  0  0  0  0  0
    6.2731  -16.2895    0.0287 C   0  0  0  0  0  0  0  0  0  0  0  0
   10.0287  -14.0723    0.0638 N   0  0  0  0  0  0  0  0  0  0  0  0
    9.5246  -12.6874   -0.0941 C   0  0  0  0  0  0  0  0  0  0  0  0
    7.7587  -12.5895   -0.1875 S   0  0  0  0  0  0  0  0  0  0  0  0
   10.2403  -11.1725   -0.2738 S   0  0  0  0  0  0  0  0  0  0  0  0
   11.4402  -14.4059    0.1944 C   0  0  0  0  0  0  0  0  0  0  0  0
   12.5611  -13.2094    0.7193 S   0  0  0  0  0  0  0  0  0  0  0  0
   12.0039  -15.6759   -0.1053 N   0  0  0  0  0  0  0  0  0  0  0  0
   11.3698  -16.9057   -0.5389 C   0  0  0  0  0  0  0  0  0  0  0  0
   13.4645  -15.9502    0.0740 C   0  0  0  0  0  0  0  0  0  0  0  0
    9.4836  -16.9157    0.8353 H   0  0  0  0  0  0  0  0  0  0  0  0
    7.3876  -18.0622    0.4631 H   0  0  0  0  0  0  0  0  0  0  0  0
    5.4495  -14.3298   -0.2421 H   0  0  0  0  0  0  0  0  0  0  0  0
    5.3133  -16.7966   -0.0307 H   0  0  0  0  0  0  0  0  0  0  0  0
   10.4899  -16.7281   -1.1456 H   0  0  0  0  0  0  0  0  0  0  0  0
   11.2035  -17.5127    0.3587 H   0  0  0  0  0  0  0  0  0  0  0  0
   12.0569  -17.5044   -1.1478 H   0  0  0  0  0  0  0  0  0  0  0  0
   14.1172  -15.0886    0.2082 H   0  0  0  0  0  0  0  0  0  0  0  0
   13.8447  -16.4558   -0.8220 H   0  0  0  0  0  0  0  0  0  0  0  0
   13.5899  -16.6109    0.9383 H   0  0  0  0  0  0  0  0  0  0  0  0
  1  2  2  0  0  0  0
  1  7  1  0  0  0  0
  1  3  1  0  0  0  0
  2  4  1  0  0  0  0
  2 16  1  0  0  0  0
  3  5  2  0  0  0  0
  3  9  1  0  0  0  0
  4  6  2  0  0  0  0
  4 17  1  0  0  0  0
  5  6  1  0  0  0  0
  5 18  1  0  0  0  0
  6 19  1  0  0  0  0
  7  8  1  0  0  0  0
  7 11  1  0  0  0  0
  8  9  1  0  0  0  0
  8 10  2  0  0  0  0
 11 12  2  0  0  0  0
 11 13  1  0  0  0  0
 13 14  1  0  0  0  0
 13 15  1  0  0  0  0
 14 20  1  0  0  0  0
 14 21  1  0  0  0  0
 14 22  1  0  0  0  0
 15 23  1  0  0  0  0
 15 24  1  0  0  0  0
 15 25  1  0  0  0  0
M  END
