
 OpenBabel09252514143D

 13 13  0  0  0  0  0  0  0  0999 V2000
    9.5455  -14.4664    0.0000 C   0  0  0  0  0  0  0  0  0  0  0  0
    9.5850  -15.9031    0.0000 C   0  0  0  0  0  0  0  0  0  0  0  0
    8.2495  -13.7561    0.0000 C   0  0  0  0  0  0  0  0  0  0  0  0
    8.4347  -16.6173   -0.0000 C   0  0  0  0  0  0  0  0  0  0  0  0
    7.0607  -14.6055   -0.0000 C   0  0  0  0  0  0  0  0  0  0  0  0
    7.1549  -15.9517   -0.0000 C   0  0  0  0  0  0  0  0  0  0  0  0
    8.2164  -12.5427    0.0000 O   0  0  0  0  0  0  0  0  0  0  0  0
   10.6431  -13.7441   -0.0000 N   0  0  0  0  0  0  0  0  0  0  0  0
   11.5700  -13.1020   -0.0000 N   0  0  0  0  0  0  0  0  0  0  0  0
   10.5595  -16.3916    0.0000 H   0  0  0  0  0  0  0  0  0  0  0  0
    8.4415  -17.7046    0.0000 H   0  0  0  0  0  0  0  0  0  0  0  0
    6.1085  -14.0768   -0.0000 H   0  0  0  0  0  0  0  0  0  0  0  0
    6.2628  -16.5818   -0.0000 H   0  0  0  0  0  0  0  0  0  0  0  0
  1  3  1  0  0  0  0
  1  2  2  0  0  0  0
  2 10  1  0  0  0  0
  3  7  2  0  0  0  0
  4 11  1  0  0  0  0
  4  2  1  0  0  0  0
  5  6  2  0  0  0  0
  5 12  1  0  0  0  0
  5  3  1  0  0  0  0
  6  4  1  0  0  0  0
  8  1  1  0  0  0  0
  9  8  1  0  0  0  0
 13  6  1  0  0  0  0
M  END
