
 OpenBabel09252514043D

 11 11  0  0  0  0  0  0  0  0999 V2000
   -1.3713    0.9704    0.1213 C   0  0  0  0  0  0  0  0  0  0  0  0
    0.0587    1.1132    0.1374 C   0  0  0  0  0  0  0  0  0  0  0  0
   -1.7357   -0.3426   -0.0239 C   0  0  0  0  0  0  0  0  0  0  0  0
   -0.3376   -1.3875   -0.1389 S   0  0  0  0  0  0  0  0  0  0  0  0
    0.7564   -0.0596    0.0080 C   0  0  0  0  0  0  0  0  0  0  0  0
    0.5481    2.3600    0.2753 O   0  0  0  0  0  0  0  0  0  0  0  0
    1.5402    2.3659    0.2763 H   0  0  0  0  0  0  0  0  0  0  0  0
    1.8216   -0.1875   -0.0058 H   0  0  0  0  0  0  0  0  0  0  0  0
   -2.0384    1.8162    0.2145 H   0  0  0  0  0  0  0  0  0  0  0  0
   -3.0371   -0.8618   -0.0815 C   0  0  0  0  0  0  0  0  0  0  0  0
   -4.1119   -1.2914   -0.1293 N   0  0  0  0  0  0  0  0  0  0  0  0
  1  2  1  0  0  0  0
  1  9  1  0  0  0  0
  2  6  1  0  0  0  0
  3  1  2  0  0  0  0
  4  3  1  0  0  0  0
  4  5  1  0  0  0  0
  5  2  2  0  0  0  0
  6  7  1  0  0  0  0
  8  5  1  0  0  0  0
 10  3  1  0  0  0  0
 11 10  3  0  0  0  0
M  END
