
 OpenBabel09252512013D

 13 13  0  0  0  0  0  0  0  0999 V2000
    9.5429  -14.4699    0.0000 C   0  0  0  0  0  0  0  0  0  0  0  0
    9.6160  -15.9347    0.0000 C   0  0  0  0  0  0  0  0  0  0  0  0
    8.2390  -13.7519    0.0000 C   0  0  0  0  0  0  0  0  0  0  0  0
    8.4513  -16.5958   -0.0000 C   0  0  0  0  0  0  0  0  0  0  0  0
    7.0292  -14.6000    0.0000 C   0  0  0  0  0  0  0  0  0  0  0  0
    7.1649  -15.9331   -0.0000 C   0  0  0  0  0  0  0  0  0  0  0  0
    8.1896  -12.5348   -0.0000 O   0  0  0  0  0  0  0  0  0  0  0  0
   10.6301  -13.7323   -0.0000 N   0  3  0  0  0  0  0  0  0  0  0  0
   11.5986  -13.1284    0.0000 N   0  0  0  0  0  0  0  0  0  0  0  0
   10.5782  -16.4331   -0.0000 H   0  0  0  0  0  0  0  0  0  0  0  0
    8.4457  -17.6836    0.0000 H   0  0  0  0  0  0  0  0  0  0  0  0
    6.0702  -14.0992   -0.0000 H   0  0  0  0  0  0  0  0  0  0  0  0
    6.2815  -16.5669    0.0000 H   0  0  0  0  0  0  0  0  0  0  0  0
  1  2  1  0  0  0  0
  1  3  1  0  0  0  0
  1  8  2  0  0  0  0
  2  4  2  0  0  0  0
  2 10  1  0  0  0  0
  3  5  1  0  0  0  0
  3  7  2  0  0  0  0
  4  6  1  0  0  0  0
  4 11  1  0  0  0  0
  5  6  2  0  0  0  0
  5 12  1  0  0  0  0
  6 13  1  0  0  0  0
  8  9  2  0  0  0  0
M  CHG  1   8   1
M  END
