
 OpenBabel09252513083D

 55 58  0  0  0  0  0  0  0  0999 V2000
    6.4327  -19.0204   -0.0171 C   0  0  0  0  0  0  0  0  0  0  0  0
    6.4579  -20.4163   -0.0100 C   0  0  0  0  0  0  0  0  0  0  0  0
    5.1904  -18.3594   -0.0078 C   0  0  0  0  0  0  0  0  0  0  0  0
    5.2591  -21.1352    0.0025 C   0  0  0  0  0  0  0  0  0  0  0  0
    3.9980  -19.0765    0.0047 C   0  0  0  0  0  0  0  0  0  0  0  0
    4.0332  -20.4670    0.0092 C   0  0  0  0  0  0  0  0  0  0  0  0
    7.6655  -18.1553   -0.0314 C   0  0  0  0  0  0  0  0  0  0  0  0
    8.9171  -18.8519   -0.0567 O   0  0  0  0  0  0  0  0  0  0  0  0
    9.9336  -17.9353   -0.0577 C   0  0  0  0  0  0  0  0  0  0  0  0
    9.7320  -16.7320   -0.0501 O   0  0  0  0  0  0  0  0  0  0  0  0
   11.1554  -18.5634   -0.0538 N   0  0  0  0  0  0  0  0  0  0  0  0
   12.4071  -17.9145    0.0114 C   0  0  0  0  0  0  0  0  0  0  0  0
   12.5367  -16.5251    0.0174 C   0  0  0  0  0  0  0  0  0  0  0  0
   13.5686  -18.6881    0.0893 C   0  0  0  0  0  0  0  0  0  0  0  0
   13.7829  -15.9167    0.1402 C   0  0  0  0  0  0  0  0  0  0  0  0
   14.8285  -18.0736    0.2111 C   0  0  0  0  0  0  0  0  0  0  0  0
   14.9488  -16.6748    0.2589 C   0  0  0  0  0  0  0  0  0  0  0  0
   16.2213  -15.9473    0.3580 C   0  0  0  0  0  0  0  0  0  0  0  0
   16.3512  -14.6614    0.0960 N   0  0  0  0  0  0  0  0  0  0  0  0
   17.6776  -16.6910    0.8671 S   0  0  0  0  0  0  0  0  0  0  0  0
   17.6880  -14.3094    0.0641 C   0  0  0  0  0  0  0  0  0  0  0  0
   18.5619  -15.3703    0.2392 C   0  0  0  0  0  0  0  0  0  0  0  0
   18.0381  -12.8892   -0.1992 C   0  0  0  0  0  0  0  0  0  0  0  0
   20.3076  -15.4770    0.0405 S   0  0  0  0  0  0  0  0  0  0  0  0
   20.9694  -17.1187   -0.1067 C   0  0  0  0  0  0  0  0  0  0  0  0
   22.3452  -17.2572    0.1138 C   0  0  0  0  0  0  0  0  0  0  0  0
   20.2067  -18.2468   -0.4081 C   0  0  0  0  0  0  0  0  0  0  0  0
   22.9371  -18.5217    0.0985 C   0  0  0  0  0  0  0  0  0  0  0  0
   20.7908  -19.5161   -0.3677 C   0  0  0  0  0  0  0  0  0  0  0  0
   22.1581  -19.6633   -0.1133 C   0  0  0  0  0  0  0  0  0  0  0  0
   22.7613  -21.0346   -0.0410 C   0  0  0  0  0  0  0  0  0  0  0  0
   20.8225  -14.9169    1.2762 O   0  0  0  0  0  0  0  0  0  0  0  0
   20.5533  -14.8295   -1.2344 O   0  0  0  0  0  0  0  0  0  0  0  0
    7.4023  -20.9541   -0.0146 H   0  0  0  0  0  0  0  0  0  0  0  0
    5.1538  -17.2707   -0.0106 H   0  0  0  0  0  0  0  0  0  0  0  0
    5.2791  -22.2217    0.0069 H   0  0  0  0  0  0  0  0  0  0  0  0
    3.0483  -18.5486    0.0107 H   0  0  0  0  0  0  0  0  0  0  0  0
    3.1041  -21.0300    0.0181 H   0  0  0  0  0  0  0  0  0  0  0  0
    7.6288  -17.5330    0.8734 H   0  0  0  0  0  0  0  0  0  0  0  0
    7.6013  -17.5213   -0.9261 H   0  0  0  0  0  0  0  0  0  0  0  0
   11.1248  -19.5724   -0.0471 H   0  0  0  0  0  0  0  0  0  0  0  0
   11.6897  -15.8551   -0.0710 H   0  0  0  0  0  0  0  0  0  0  0  0
   13.5183  -19.7739    0.0611 H   0  0  0  0  0  0  0  0  0  0  0  0
   13.8302  -14.8282    0.1391 H   0  0  0  0  0  0  0  0  0  0  0  0
   15.7064  -18.7137    0.2553 H   0  0  0  0  0  0  0  0  0  0  0  0
   17.1384  -12.2640   -0.2052 H   0  0  0  0  0  0  0  0  0  0  0  0
   18.5368  -12.7779   -1.1651 H   0  0  0  0  0  0  0  0  0  0  0  0
   18.6978  -12.5088    0.5877 H   0  0  0  0  0  0  0  0  0  0  0  0
   22.9641  -16.3801    0.2967 H   0  0  0  0  0  0  0  0  0  0  0  0
   19.1616  -18.1913   -0.6818 H   0  0  0  0  0  0  0  0  0  0  0  0
   24.0085  -18.6074    0.2664 H   0  0  0  0  0  0  0  0  0  0  0  0
   20.1704  -20.3944   -0.5385 H   0  0  0  0  0  0  0  0  0  0  0  0
   23.8548  -20.9902   -0.0231 H   0  0  0  0  0  0  0  0  0  0  0  0
   22.4663  -21.6275   -0.9126 H   0  0  0  0  0  0  0  0  0  0  0  0
   22.4241  -21.5419    0.8689 H   0  0  0  0  0  0  0  0  0  0  0  0
  1  2  1  0  0  0  0
  1  3  2  0  0  0  0
  1  7  1  0  0  0  0
  2  4  2  0  0  0  0
  2 34  1  0  0  0  0
  3  5  1  0  0  0  0
  3 35  1  0  0  0  0
  4  6  1  0  0  0  0
  4 36  1  0  0  0  0
  5  6  2  0  0  0  0
  5 37  1  0  0  0  0
  6 38  1  0  0  0  0
  7  8  1  0  0  0  0
  7 39  1  0  0  0  0
  7 40  1  0  0  0  0
  8  9  1  0  0  0  0
  9 10  2  0  0  0  0
  9 11  1  0  0  0  0
 11 12  1  0  0  0  0
 11 41  1  0  0  0  0
 12 13  1  0  0  0  0
 12 14  2  0  0  0  0
 13 15  2  0  0  0  0
 13 42  1  0  0  0  0
 14 16  1  0  0  0  0
 14 43  1  0  0  0  0
 15 17  1  0  0  0  0
 15 44  1  0  0  0  0
 16 17  2  0  0  0  0
 16 45  1  0  0  0  0
 17 18  1  0  0  0  0
 18 19  2  0  0  0  0
 18 20  1  0  0  0  0
 19 21  1  0  0  0  0
 20 22  1  0  0  0  0
 21 22  2  0  0  0  0
 21 23  1  0  0  0  0
 22 24  1  0  0  0  0
 23 46  1  0  0  0  0
 23 47  1  0  0  0  0
 23 48  1  0  0  0  0
 24 25  1  0  0  0  0
 24 32  2  0  0  0  0
 24 33  2  0  0  0  0
 25 26  1  0  0  0  0
 25 27  2  0  0  0  0
 26 28  2  0  0  0  0
 26 49  1  0  0  0  0
 27 29  1  0  0  0  0
 27 50  1  0  0  0  0
 28 30  1  0  0  0  0
 28 51  1  0  0  0  0
 29 30  2  0  0  0  0
 29 52  1  0  0  0  0
 30 31  1  0  0  0  0
 31 53  1  0  0  0  0
 31 54  1  0  0  0  0
 31 55  1  0  0  0  0
M  END
