
 OpenBabel09252511533D

  8  7  0  0  0  0  0  0  0  0999 V2000
   -1.6491    0.1747    0.0020 C   0  0  0  0  0  0  0  0  0  0  0  0
   -0.4218   -0.3532   -0.0653 C   0  0  0  0  0  0  0  0  0  0  0  0
   -2.5315   -0.4514   -0.0746 H   0  0  0  0  0  0  0  0  0  0  0  0
   -1.8009    1.2432    0.1350 H   0  0  0  0  0  0  0  0  0  0  0  0
    0.7829    0.5035    0.0395 C   0  0  0  0  0  0  0  0  0  0  0  0
   -0.2593   -1.4154   -0.1974 H   0  0  0  0  0  0  0  0  0  0  0  0
    0.7433    1.7177    0.1875 O   0  0  0  0  0  0  0  0  0  0  0  0
    1.7377   -0.0440   -0.0267 H   0  0  0  0  0  0  0  0  0  0  0  0
  1  2  2  0  0  0  0
  1  3  1  0  0  0  0
  1  4  1  0  0  0  0
  2  5  1  0  0  0  0
  2  6  1  0  0  0  0
  5  7  2  0  0  0  0
  5  8  1  0  0  0  0
M  END
