36

C          0.72550        0.75930        0.00040
C         -0.72540        0.75930        0.00030
C          1.45230       -0.46250        0.00050
C         -1.45240       -0.46250        0.00050
C          2.89850       -0.47230        0.00020
C         -2.89840       -0.47230        0.00020
C          0.69770       -1.64530        0.00080
C         -0.69780       -1.64530        0.00080
C          3.59740        0.75710        0.00000
C         -3.59730        0.75710       -0.00020
C          1.48970        1.94710        0.00010
C         -1.48970        1.94710        0.00010
C          2.88360        1.94970        0.00010
C         -2.88350        1.94970       -0.00010
C          3.69920       -1.64580       -0.00030
C         -3.69930       -1.64570       -0.00020
C          5.00320        0.79340       -0.00020
C         -5.00320        0.79340       -0.00060
C          5.09680       -1.60120       -0.00080
C         -5.09690       -1.60120       -0.00040
C          5.74970       -0.37960       -0.00070
C         -5.74970       -0.37950       -0.00060
H          1.17350       -2.62260        0.00100
H         -1.17370       -2.62260        0.00090
H          1.01780        2.92600       -0.00010
H         -1.01770        2.92600        0.00010
H          3.39920        2.90840       -0.00010
H         -3.39910        2.90840       -0.00030
H          3.24880       -2.63490       -0.00030
H         -3.24880       -2.63490       -0.00010
H          5.53220        1.74490       -0.00020
H         -5.53210        1.74490       -0.00080
H          5.66820       -2.52480       -0.00110
H         -5.66830       -2.52480       -0.00050
H          6.83440       -0.33750       -0.00100
H         -6.83440       -0.33740       -0.00080
